<Qucs Library 0.0.19 "SpiceOpamp">

<Component LM311>
  <Description>
Authors: Vadim Kuznetsov <ra3xdh@gmail.com> and Timofey Moiseev <voig1396@gmail.com>
  </Description>
  <Spice>
.SUBCKT SpiceOpamp_LM311 	gnd 1 2 3 4 5 6
*
F1 9 3 V1 1
IEE 3 7 DC 100.0E-6
VI1 21 1 DC .45
VI2 22 2 DC .45
Q1 9 21 7 QIN
Q2 8 22 7 QIN
Q3 9 8 4 QMO
Q4 8 8 4 QMI
.MODEL QIN PNP(IS=800.0E-18 BF=500)
.MODEL QMI NPN(IS=800.0E-18 BF=1002)
.MODEL QMO NPN(IS=800.0E-18 BF=1000 CJC=1E-15 TR=102.5E-9)
E1 10 6 9 4 1
V1 10 11 DC 0
Q5 5 11 6 QOC
.MODEL QOC NPN(IS=800.0E-18 BF=103.5E3 CJC=1E-15 TF=11.60E-12 TR=48.19E-9)
DP 4 3 DX
RP 3 4 6.667E3
.MODEL DX D(IS=800.0E-18)
*
.ENDS
  </Spice>
  <Model>
.Def:SpiceOpamp_LM311 _net0 _net1 _net2 _net3 _net5 _net4
Sub:X1 _net3 _net0 _net1 _net2 _net4 _net5 gnd Type="LM311_cir"
.Def:End
.Def:LM311_cir _net4 _net1 _net2 _net3 _net6 _net5 _ref
  .Def:LM311 _ref _net1 _net2 _net3 _net4 _net5 _net6
  CCCS:F1 _net10 _net9 _net3 _cnet0 G="1"
  Idc:IEE _net7 _net3 I="0.0001"
  Vdc:VI1 _net21 _net1 U="0.45"
  Vdc:VI2 _net22 _net2 U="0.45"
  BJT:Q1 _net21 _net9 _net7 _ref Type="pnp" Is="8e-16" Bf="500" Nf="1" Nr="1" Ikf="0" Ikr="0" Vaf="0" Var="0" Ise="0" Ne="1.5" Isc="0" Nc="2" Br="1" Rbm="0" Irb="0" Cje="0" Vje="0.75" Mje="0.33" Cjc="0" Vjc="0.75" Mjc="0.33" Xcjc="1" Cjs="0" Vjs="0.75" Mjs="0" Fc="0.5" Vtf="0" Tf="0" Xtf="0" Itf="0" Tr="0"
  BJT:Q2 _net22 _net8 _net7 _ref Type="pnp" Is="8e-16" Bf="500" Nf="1" Nr="1" Ikf="0" Ikr="0" Vaf="0" Var="0" Ise="0" Ne="1.5" Isc="0" Nc="2" Br="1" Rbm="0" Irb="0" Cje="0" Vje="0.75" Mje="0.33" Cjc="0" Vjc="0.75" Mjc="0.33" Xcjc="1" Cjs="0" Vjs="0.75" Mjs="0" Fc="0.5" Vtf="0" Tf="0" Xtf="0" Itf="0" Tr="0"
  BJT:Q3 _net8 _net9 _net4 _ref Type="npn" Is="8e-16" Bf="1000" Cjc="1e-15" Tr="1.025e-07" Nf="1" Nr="1" Ikf="0" Ikr="0" Vaf="0" Var="0" Ise="0" Ne="1.5" Isc="0" Nc="2" Br="1" Rbm="0" Irb="0" Cje="0" Vje="0.75" Mje="0.33" Vjc="0.75" Mjc="0.33" Xcjc="1" Cjs="0" Vjs="0.75" Mjs="0" Fc="0.5" Vtf="0" Tf="0" Xtf="0" Itf="0"
  BJT:Q4 _net8 _net8 _net4 _ref Type="npn" Is="8e-16" Bf="1002" Nf="1" Nr="1" Ikf="0" Ikr="0" Vaf="0" Var="0" Ise="0" Ne="1.5" Isc="0" Nc="2" Br="1" Rbm="0" Irb="0" Cje="0" Vje="0.75" Mje="0.33" Cjc="0" Vjc="0.75" Mjc="0.33" Xcjc="1" Cjs="0" Vjs="0.75" Mjs="0" Fc="0.5" Vtf="0" Tf="0" Xtf="0" Itf="0" Tr="0"
  VCVS:E1 _net9 _net10 _net6 _net4 G="1"
  Vdc:V1 _cnet0 _net11 U="0"
  BJT:Q5 _net11 _net5 _net6 _ref Type="npn" Is="8e-16" Bf="103500" Cjc="1e-15" Tf="1.16e-11" Tr="4.819e-08" Nf="1" Nr="1" Ikf="0" Ikr="0" Vaf="0" Var="0" Ise="0" Ne="1.5" Isc="0" Nc="2" Br="1" Rbm="0" Irb="0" Cje="0" Vje="0.75" Mje="0.33" Vjc="0.75" Mjc="0.33" Xcjc="1" Cjs="0" Vjs="0.75" Mjs="0" Fc="0.5" Vtf="0" Xtf="0" Itf="0"
  Diode:DP _net3 _net4 Is="8e-16" N="1" M="0.5" Cj0="1e-14" Vj="0.7"
  R:RP _net3 _net4 R="6667"
  .Def:End
  Sub:X1 _ref _net1 _net2 _net3 _net4 _net5 _net6 Type="LM311"
.Def:End
  </Model>
  <Symbol>
    <Line -20 -40 0 80 #000080 2 1>
    <Line -20 -40 80 40 #000080 2 1>
    <Line -20 40 80 -40 #000080 2 1>
    <Line -40 -20 20 0 #000080 2 1>
    <Line -40 20 20 0 #000080 2 1>
    <Line -15 20 10 0 #000000 2 1>
    <Line -10 -25 0 10 #ff0000 2 1>
    <Line -15 -20 10 0 #ff0000 2 1>
    <Line 60 0 20 0 #000080 2 1>
    <Line 20 -20 0 -30 #000080 2 1>
    <Line 40 10 0 40 #000080 2 1>
    <Line 0 30 0 20 #000080 2 1>
    <Text 25 -35 8 #000000 0 "VCC">
    <Text 5 35 8 #000000 0 "VEE">
    <Text 45 15 8 #000000 0 "EOUT">
    <Text 55 -15 8 #000000 0 "COUT">
    <.PortSym -40 -20 1 0>
    <.PortSym -40 20 2 0>
    <.PortSym 0 50 4 90>
    <.PortSym 40 50 6 90>
    <.PortSym 20 -50 3 270>
    <.PortSym 80 0 5 180>
    <.ID 60 24 OP>
  </Symbol>
</Component>

<Component LM324>
  <Description>
Authors: Vadim Kuznetsov <ra3xdh@gmail.com> and Timofey Moiseev <voig1396@gmail.com>
  </Description>
  <Spice>
.SUBCKT SpiceOpamp_LM324 	gnd 1 2 3 4 5
*
C1   11 12 5.544E-12
C2    6  7 20.00E-12
DC    5 53 DX
DE   54  5 DX
DLP  90 91 DX
DLN  92 90 DX
DP    4  3 DX
EGND 99  0 POLY(2) (3,0) (4,0) 0 .5 .5
FB    7 99 POLY(5) VB VC VE VLP VLN 0 15.91E6 -20E6 20E6 20E6 -20E6
GA    6  0 11 12 125.7E-6
GCM   0  6 10 99 7.067E-9
IEE   3 10 DC 10.04E-6
HLIM 90  0 VLIM 1K
Q1   11  2 13 QX
Q2   12  1 14 QX
R2    6  9 100.0E3
RC1   4 11 7.957E3
RC2   4 12 7.957E3
RE1  13 10 2.773E3
RE2  14 10 2.773E3
REE  10 99 19.92E6
RO1   8  5 50
RO2   7 99 50
RP    3  4 30.31E3
VB    9  0 DC 0
VC 3 53 DC 2.100
VE   54  4 DC .6
VLIM  7  8 DC 0
VLP  91  0 DC 40
VLN   0 92 DC 40
.MODEL DX D(IS=800.0E-18)
.MODEL QX PNP(IS=800.0E-18 BF=250)
.ENDS 
  </Spice>
  <Model>
.Def:SpiceOpamp_LM324 _net2 _net3 _net4 _net0 _net1
Sub:X1 _net0 _net1 _net2 _net3 _net4 gnd Type="LM324_cir"
.Def:End
.Def:LM324_cir _net4 _net5 _net1 _net2 _net3 _ref
  .Def:LM324 _ref _net1 _net2 _net3 _net4 _net5
  CCCS:FB _cnet11 _net99 _net7 gnd G="1"
  Eqn:EqnFBI1 FB.I1="+1.591e+07*V2-2e+07*V3+2e+07*V4+2e+07*V5-2e+07*V6" Export="no"
  Eqn:EqnFBQ1 FB.Q1="0" Export="no"
  Eqn:EqnFBI2 FB.I2="0" Export="no"
  Eqn:EqnFBQ2 FB.Q2="0" Export="no"
  CCVS:FBV2 _ref _cnet9 gnd _cnet10 G="1"
  Eqn:EqnFBI3 FB.I3="0" Export="no"
  Eqn:EqnFBQ3 FB.Q3="0" Export="no"
  CCVS:FBV3 _net91 _cnet7 gnd _cnet8 G="1"
  Eqn:EqnFBI4 FB.I4="0" Export="no"
  Eqn:EqnFBQ4 FB.Q4="0" Export="no"
  CCVS:FBV4 _net54 _cnet5 gnd _cnet6 G="1"
  Eqn:EqnFBI5 FB.I5="0" Export="no"
  Eqn:EqnFBQ5 FB.Q5="0" Export="no"
  CCVS:FBV5 _net3 _cnet3 gnd _cnet4 G="1"
  Eqn:EqnFBI6 FB.I6="0" Export="no"
  Eqn:EqnFBQ6 FB.Q6="0" Export="no"
  CCVS:FBV6 _net9 _cnet1 gnd _cnet2 G="1"
  CCVS:EGND _cnet0 _ref _net99 gnd G="1"
  Eqn:EqnEGNDI1 EGND.I1="+0.5*V2+0.5*V3" Export="no"
  Eqn:EqnEGNDQ1 EGND.Q1="0" Export="no"
  Eqn:EqnEGNDI2 EGND.I2="0" Export="no"
  Eqn:EqnEGNDQ2 EGND.Q2="0" Export="no"
  Eqn:EqnEGNDI3 EGND.I3="0" Export="no"
  Eqn:EqnEGNDQ3 EGND.Q3="0" Export="no"
  C:C1 _net11 _net12 C="5.544e-12"
  C:C2 _net6 _net7 C="2e-11"
  Diode:DC _net53 _net5 Is="8e-16" N="1" M="0.5" Cj0="1e-14" Vj="0.7"
  Diode:DE _net5 _net54 Is="8e-16" N="1" M="0.5" Cj0="1e-14" Vj="0.7"
  Diode:DLP _net91 _net90 Is="8e-16" N="1" M="0.5" Cj0="1e-14" Vj="0.7"
  Diode:DLN _net90 _net92 Is="8e-16" N="1" M="0.5" Cj0="1e-14" Vj="0.7"
  Diode:DP _net3 _net4 Is="8e-16" N="1" M="0.5" Cj0="1e-14" Vj="0.7"
  EDD:EGND _cnet0 gnd _net3 _ref _net4 _ref I1="EGND.I1" Q1="EGND.Q1" I2="EGND.I2" Q2="EGND.Q2" I3="EGND.I3" Q3="EGND.Q3"
  EDD:FB _cnet11 gnd _cnet1 gnd _cnet3 gnd _cnet5 gnd _cnet7 gnd _cnet9 gnd I1="FB.I1" Q1="FB.Q1" I2="FB.I2" Q2="FB.Q2" I3="FB.I3" Q3="FB.Q3" I4="FB.I4" Q4="FB.Q4" I5="FB.I5" Q5="FB.Q5" I6="FB.I6" Q6="FB.Q6"
  VCCS:GA _net11 _net6 _ref _net12 G="0.0001257"
  VCCS:GCM _net10 _ref _net6 _net99 G="7.067e-09"
  Idc:IEE _net10 _net3 I="1.004e-05"
  CCVS:HLIM _net7 _net90 _ref _cnet12 G="1k"
  BJT:Q1 _net2 _net11 _net13 _ref Type="pnp" Is="8e-16" Bf="250" Nf="1" Nr="1" Ikf="0" Ikr="0" Vaf="0" Var="0" Ise="0" Ne="1.5" Isc="0" Nc="2" Br="1" Rbm="0" Irb="0" Cje="0" Vje="0.75" Mje="0.33" Cjc="0" Vjc="0.75" Mjc="0.33" Xcjc="1" Cjs="0" Vjs="0.75" Mjs="0" Fc="0.5" Vtf="0" Tf="0" Xtf="0" Itf="0" Tr="0"
  BJT:Q2 _net1 _net12 _net14 _ref Type="pnp" Is="8e-16" Bf="250" Nf="1" Nr="1" Ikf="0" Ikr="0" Vaf="0" Var="0" Ise="0" Ne="1.5" Isc="0" Nc="2" Br="1" Rbm="0" Irb="0" Cje="0" Vje="0.75" Mje="0.33" Cjc="0" Vjc="0.75" Mjc="0.33" Xcjc="1" Cjs="0" Vjs="0.75" Mjs="0" Fc="0.5" Vtf="0" Tf="0" Xtf="0" Itf="0" Tr="0"
  R:R2 _net6 _net9 R="100000"
  R:RC1 _net4 _net11 R="7957"
  R:RC2 _net4 _net12 R="7957"
  R:RE1 _net13 _net10 R="2773"
  R:RE2 _net14 _net10 R="2773"
  R:REE _net10 _net99 R="1.992e+07"
  R:RO1 _net8 _net5 R="50"
  R:RO2 _net7 _net99 R="50"
  R:RP _net3 _net4 R="30310"
  Vdc:VB _cnet2 _ref U="0"
  Vdc:VC _cnet4 _net53 U="2.1"
  Vdc:VE _cnet6 _net4 U="0.6"
  Vdc:VLIM _cnet12 _net8 U="0"
  Vdc:VLP _cnet8 _ref U="40"
  Vdc:VLN _cnet10 _net92 U="40"
  .Def:End
  Sub:X1 _ref _net1 _net2 _net3 _net4 _net5 Type="LM324"
.Def:End
  </Model>
  <Symbol>
    <Line -20 40 0 -80 #000080 2 1>
    <Line 40 0 -60 -40 #000080 2 1>
    <Line -20 40 60 -40 #000080 2 1>
    <Line 10 -20 0 -20 #000080 2 1>
    <Line 10 40 0 -20 #000080 2 1>
    <Line -40 -20 20 0 #000080 2 1>
    <Line -40 20 20 0 #000080 2 1>
    <Line -15 20 10 0 #000000 2 1>
    <Line -15 -20 10 0 #ff0000 2 1>
    <Line -10 -15 0 -10 #ff0000 2 1>
    <Line 40 0 20 0 #000080 2 1>
    <Text 15 -35 8 #000000 0 "VCC">
    <Text 15 25 8 #000000 0 "VEE">
    <.PortSym -40 -20 1 0>
    <.PortSym -40 20 2 0>
    <.PortSym 10 -40 3 270>
    <.PortSym 10 40 4 90>
    <.PortSym 60 0 5 180>
    <.ID 50 24 OP>
  </Symbol>
</Component>

<Component LM358>
  <Description>
Authors: Vadim Kuznetsov <ra3xdh@gmail.com> and Timofey Moiseev <voig1396@gmail.com>
  </Description>
  <Spice>
.SUBCKT SpiceOpamp_LM358 	gnd 1 2 3 4 5
*
C1   11 12 5.544E-12
C2    6  7 20.00E-12
DC    5 53 DX
DE   54  5 DX
DLP  90 91 DX
DLN  92 90 DX
DP    4  3 DX
EGND 99  0 POLY(2) (3,0) (4,0) 0 .5 .5
FB    7 99 POLY(5) VB VC VE VLP VLN 0 15.91E6 -20E6 20E6 20E6 -20E6
GA    6  0 11 12 125.7E-6
GCM   0  6 10 99 7.067E-9
IEE   3 10 DC 10.04E-6
HLIM 90  0 VLIM 1K
Q1   11  2 13 QX
Q2   12  1 14 QX
R2    6  9 100.0E3
RC1   4 11 7.957E3
RC2   4 12 7.957E3
RE1  13 10 2.773E3
RE2  14 10 2.773E3
REE  10 99 19.92E6
RO1   8  5 50
RO2   7 99 50
RP    3  4 30.31E3
VB    9  0 DC 0
VC 3 53 DC 2.100
VE   54  4 DC .6
VLIM  7  8 DC 0
VLP  91  0 DC 40
VLN   0 92 DC 40
.MODEL DX D(IS=800.0E-18)
.MODEL QX PNP(IS=800.0E-18 BF=250)
.ENDS
  </Spice>
  <Model>
.Def:SpiceOpamp_LM358 _net2 _net3 _net4 _net0 _net1
Sub:X1 _net0 _net1 _net2 _net3 _net4 gnd Type="LM358_sp"
.Def:End
.Def:LM358_sp _net4 _net5 _net1 _net2 _net3 _ref
  .Def:LM358 _ref _net1 _net2 _net3 _net4 _net5
  CCCS:FB _cnet11 _net99 _net7 gnd G="1"
  Eqn:EqnFBI1 FB.I1="+1.591e+07*V2-2e+07*V3+2e+07*V4+2e+07*V5-2e+07*V6" Export="no"
  Eqn:EqnFBQ1 FB.Q1="0" Export="no"
  Eqn:EqnFBI2 FB.I2="0" Export="no"
  Eqn:EqnFBQ2 FB.Q2="0" Export="no"
  CCVS:FBV2 _ref _cnet9 gnd _cnet10 G="1"
  Eqn:EqnFBI3 FB.I3="0" Export="no"
  Eqn:EqnFBQ3 FB.Q3="0" Export="no"
  CCVS:FBV3 _net91 _cnet7 gnd _cnet8 G="1"
  Eqn:EqnFBI4 FB.I4="0" Export="no"
  Eqn:EqnFBQ4 FB.Q4="0" Export="no"
  CCVS:FBV4 _net54 _cnet5 gnd _cnet6 G="1"
  Eqn:EqnFBI5 FB.I5="0" Export="no"
  Eqn:EqnFBQ5 FB.Q5="0" Export="no"
  CCVS:FBV5 _net3 _cnet3 gnd _cnet4 G="1"
  Eqn:EqnFBI6 FB.I6="0" Export="no"
  Eqn:EqnFBQ6 FB.Q6="0" Export="no"
  CCVS:FBV6 _net9 _cnet1 gnd _cnet2 G="1"
  CCVS:EGND _cnet0 _ref _net99 gnd G="1"
  Eqn:EqnEGNDI1 EGND.I1="+0.5*V2+0.5*V3" Export="no"
  Eqn:EqnEGNDQ1 EGND.Q1="0" Export="no"
  Eqn:EqnEGNDI2 EGND.I2="0" Export="no"
  Eqn:EqnEGNDQ2 EGND.Q2="0" Export="no"
  Eqn:EqnEGNDI3 EGND.I3="0" Export="no"
  Eqn:EqnEGNDQ3 EGND.Q3="0" Export="no"
  C:C1 _net11 _net12 C="5.544e-12"
  C:C2 _net6 _net7 C="2e-11"
  Diode:DC _net53 _net5 Is="8e-16" N="1" M="0.5" Cj0="1e-14" Vj="0.7"
  Diode:DE _net5 _net54 Is="8e-16" N="1" M="0.5" Cj0="1e-14" Vj="0.7"
  Diode:DLP _net91 _net90 Is="8e-16" N="1" M="0.5" Cj0="1e-14" Vj="0.7"
  Diode:DLN _net90 _net92 Is="8e-16" N="1" M="0.5" Cj0="1e-14" Vj="0.7"
  Diode:DP _net3 _net4 Is="8e-16" N="1" M="0.5" Cj0="1e-14" Vj="0.7"
  EDD:EGND _cnet0 gnd _net3 _ref _net4 _ref I1="EGND.I1" Q1="EGND.Q1" I2="EGND.I2" Q2="EGND.Q2" I3="EGND.I3" Q3="EGND.Q3"
  EDD:FB _cnet11 gnd _cnet1 gnd _cnet3 gnd _cnet5 gnd _cnet7 gnd _cnet9 gnd I1="FB.I1" Q1="FB.Q1" I2="FB.I2" Q2="FB.Q2" I3="FB.I3" Q3="FB.Q3" I4="FB.I4" Q4="FB.Q4" I5="FB.I5" Q5="FB.Q5" I6="FB.I6" Q6="FB.Q6"
  VCCS:GA _net11 _net6 _ref _net12 G="0.0001257"
  VCCS:GCM _net10 _ref _net6 _net99 G="7.067e-09"
  Idc:IEE _net10 _net3 I="1.004e-05"
  CCVS:HLIM _net7 _net90 _ref _cnet12 G="1k"
  BJT:Q1 _net2 _net11 _net13 _ref Type="pnp" Is="8e-16" Bf="250" Nf="1" Nr="1" Ikf="0" Ikr="0" Vaf="0" Var="0" Ise="0" Ne="1.5" Isc="0" Nc="2" Br="1" Rbm="0" Irb="0" Cje="0" Vje="0.75" Mje="0.33" Cjc="0" Vjc="0.75" Mjc="0.33" Xcjc="1" Cjs="0" Vjs="0.75" Mjs="0" Fc="0.5" Vtf="0" Tf="0" Xtf="0" Itf="0" Tr="0"
  BJT:Q2 _net1 _net12 _net14 _ref Type="pnp" Is="8e-16" Bf="250" Nf="1" Nr="1" Ikf="0" Ikr="0" Vaf="0" Var="0" Ise="0" Ne="1.5" Isc="0" Nc="2" Br="1" Rbm="0" Irb="0" Cje="0" Vje="0.75" Mje="0.33" Cjc="0" Vjc="0.75" Mjc="0.33" Xcjc="1" Cjs="0" Vjs="0.75" Mjs="0" Fc="0.5" Vtf="0" Tf="0" Xtf="0" Itf="0" Tr="0"
  R:R2 _net6 _net9 R="100000"
  R:RC1 _net4 _net11 R="7957"
  R:RC2 _net4 _net12 R="7957"
  R:RE1 _net13 _net10 R="2773"
  R:RE2 _net14 _net10 R="2773"
  R:REE _net10 _net99 R="1.992e+07"
  R:RO1 _net8 _net5 R="50"
  R:RO2 _net7 _net99 R="50"
  R:RP _net3 _net4 R="30310"
  Vdc:VB _cnet2 _ref U="0"
  Vdc:VC _cnet4 _net53 U="2.1"
  Vdc:VE _cnet6 _net4 U="0.6"
  Vdc:VLIM _cnet12 _net8 U="0"
  Vdc:VLP _cnet8 _ref U="40"
  Vdc:VLN _cnet10 _net92 U="40"
  .Def:End
  Sub:X1 _ref _net1 _net2 _net3 _net4 _net5 Type="LM358"
.Def:End
  </Model>
  <Symbol>
    <Line -20 40 0 -80 #000080 2 1>
    <Line 40 0 -60 -40 #000080 2 1>
    <Line -20 40 60 -40 #000080 2 1>
    <Line 10 -20 0 -20 #000080 2 1>
    <Line 10 40 0 -20 #000080 2 1>
    <Line -40 -20 20 0 #000080 2 1>
    <Line -40 20 20 0 #000080 2 1>
    <Line -15 20 10 0 #000000 2 1>
    <Line -15 -20 10 0 #ff0000 2 1>
    <Line -10 -15 0 -10 #ff0000 2 1>
    <Line 40 0 20 0 #000080 2 1>
    <Text 15 -35 8 #000000 0 "VCC">
    <Text 15 25 8 #000000 0 "VEE">
    <.PortSym -40 -20 1 0>
    <.PortSym -40 20 2 0>
    <.PortSym 10 -40 3 0>
    <.PortSym 10 40 4 0>
    <.PortSym 60 0 5 180>
    <.ID 40 34 OP>
  </Symbol>
</Component>

<Component MAX495>
  <Description>
Authors: Vadim Kuznetsov <ra3xdh@gmail.com> and Timofey Moiseev <voig1396@gmail.com>
  </Description>
  <Spice>
.SUBCKT SpiceOpamp_MAX495 gnd 111 112 99 50 97
*
****************INPUT STAGE**********************
RCM1 111 1 5000
V12 99 113 .140
D11 1 113 DX
D12 114 1 DX
V13 114 50 .140
***********
V14 99 115 .140
D13 2 115 DX
D14 116 2 DX
V15 50 116 .140
***********
RCM2 112 2 5000
*IOS 2 1 5N
I1 4 50 75E-6
RIN1 1 104 1E9
RIN2 2 104 1E9
R1 5 99 689.3
R2 6 99 689.3
EOS 1 9 POLY(1) 98 30 200U 1
*               ^       OFFSET VOLTAGE, NODE 30 FROM COM. MODE STAGE.
Q1 5 2 103 QX
Q2 6 9 104 QX
REE1 104 4 1
REE2 103 4 1
* Second Pole 
C4 5 6 68PF
***************SECOND STAGE******************
*IS 99 50 .5m
*  SETS IS ^
****OUTPUT VOLTAGE LIMITING****
V2 99 11 .70
D1 12 11 DX
D2 10 12 DX
V3 10 50 .70
****LEVEL TRANSLATION ****
EH 99 98 99 50 0.5
****GAIN, 1ST POLE****
G3 98 12 5 6 0.0012
R4 12 98 1.6936E8
C3 98 12 3.75E-10
*
****COMMON-MODE STAGE****
G11 98 30 104 98 1E-8
R13 30 98 1E3
*
*******************OUTPUT STAGE****************
F6 99 50 VA7 1
F5 99 38 VA8 1
D9 40 38 DX
D10 38 99 DX
VA7 99 40 0
****************
G12 98 32 12 98 1E-3
R15 98 32 1E3
D3 32 36 DX
D4 37 32 DX
V5 35 37 3.5V
V4 36 35 3.5V
R16 34 35 30
E1 99 33 99 32 1
VA8 33 34 0V
L 35 96 .1U
R17 96 97 .01
*
***** MODELS USED ******
.MODEL DX D(IS=1E-15)
.MODEL QX NPN(BF=6.25E4)
.ENDS
  </Spice>
  <Model>
.Def:SpiceOpamp_MAX495 _net4 _net2 _net1 _net0 _net3
Sub:X1 _net0 _net1 _net2 _net3 _net4 gnd Type="MAX495_cir"
.Def:End
.Def:MAX495_cir _net50 _net99 _net112 _net97 _net111 _ref
  .Def:MAX495 _ref _net111 _net112 _net99 _net50 _net97
  CCVS:EOS _cnet0 _net9 _net1 gnd G="1"
  Eqn:EqnEOSI1 EOS.I1="+200+1*V2" Export="no"
  Eqn:EqnEOSQ1 EOS.Q1="0" Export="no"
  Eqn:EqnEOSI2 EOS.I2="0" Export="no"
  Eqn:EqnEOSQ2 EOS.Q2="0" Export="no"
  R:RCM1 _net111 _net1 R="5000"
  Vdc:V12 _net99 _net113 U="0.14"
  Diode:D11 _net113 _net1 Is="1e-15" N="1" M="0.5" Cj0="1e-14" Vj="0.7"
  Diode:D12 _net1 _net114 Is="1e-15" N="1" M="0.5" Cj0="1e-14" Vj="0.7"
  Vdc:V13 _net114 _net50 U="0.14"
  Vdc:V14 _net99 _net115 U="0.14"
  Diode:D13 _net115 _net2 Is="1e-15" N="1" M="0.5" Cj0="1e-14" Vj="0.7"
  Diode:D14 _net2 _net116 Is="1e-15" N="1" M="0.5" Cj0="1e-14" Vj="0.7"
  Vdc:V15 _net50 _net116 U="0.14"
  R:RCM2 _net112 _net2 R="5000"
  Idc:I1 _net50 _net4 I="7.5e-05"
  R:RIN1 _net1 _net104 R="1e+09"
  R:RIN2 _net2 _net104 R="1e+09"
  R:R1 _net5 _net99 R="689.3"
  R:R2 _net6 _net99 R="689.3"
  EDD:EOS _cnet0 gnd _net98 _net30 I1="EOS.I1" Q1="EOS.Q1" I2="EOS.I2" Q2="EOS.Q2"
  BJT:Q1 _net2 _net5 _net103 _ref Type="npn" Bf="62500" Is="1e-16" Nf="1" Nr="1" Ikf="0" Ikr="0" Vaf="0" Var="0" Ise="0" Ne="1.5" Isc="0" Nc="2" Br="1" Rbm="0" Irb="0" Cje="0" Vje="0.75" Mje="0.33" Cjc="0" Vjc="0.75" Mjc="0.33" Xcjc="1" Cjs="0" Vjs="0.75" Mjs="0" Fc="0.5" Vtf="0" Tf="0" Xtf="0" Itf="0" Tr="0"
  BJT:Q2 _net9 _net6 _net104 _ref Type="npn" Bf="62500" Is="1e-16" Nf="1" Nr="1" Ikf="0" Ikr="0" Vaf="0" Var="0" Ise="0" Ne="1.5" Isc="0" Nc="2" Br="1" Rbm="0" Irb="0" Cje="0" Vje="0.75" Mje="0.33" Cjc="0" Vjc="0.75" Mjc="0.33" Xcjc="1" Cjs="0" Vjs="0.75" Mjs="0" Fc="0.5" Vtf="0" Tf="0" Xtf="0" Itf="0" Tr="0"
  R:REE1 _net104 _net4 R="1"
  R:REE2 _net103 _net4 R="1"
  C:C4 _net5 _net6 C="68pF"
  Vdc:V2 _net99 _net11 U="0.7"
  Diode:D1 _net11 _net12 Is="1e-15" N="1" M="0.5" Cj0="1e-14" Vj="0.7"
  Diode:D2 _net12 _net10 Is="1e-15" N="1" M="0.5" Cj0="1e-14" Vj="0.7"
  Vdc:V3 _net10 _net50 U="0.7"
  VCVS:EH _net99 _net99 _net98 _net50 G="0.5"
  VCCS:G3 _net5 _net98 _net12 _net6 G="0.0012"
  R:R4 _net12 _net98 R="1.6936e+08"
  C:C3 _net98 _net12 C="3.75e-10"
  VCCS:G11 _net104 _net98 _net30 _net98 G="1e-08"
  R:R13 _net30 _net98 R="1000"
  CCCS:F6 _net99 _net99 _net50 _cnet1 G="1"
  CCCS:F5 _net33 _net99 _net38 _cnet2 G="1"
  Diode:D9 _net38 _net40 Is="1e-15" N="1" M="0.5" Cj0="1e-14" Vj="0.7"
  Diode:D10 _net99 _net38 Is="1e-15" N="1" M="0.5" Cj0="1e-14" Vj="0.7"
  Vdc:VA7 _cnet1 _net40 U="0"
  VCCS:G12 _net12 _net98 _net32 _net98 G="0.001"
  R:R15 _net98 _net32 R="1000"
  Diode:D3 _net36 _net32 Is="1e-15" N="1" M="0.5" Cj0="1e-14" Vj="0.7"
  Diode:D4 _net32 _net37 Is="1e-15" N="1" M="0.5" Cj0="1e-14" Vj="0.7"
  Vdc:V5 _net35 _net37 U="3.5V"
  Vdc:V4 _net36 _net35 U="3.5V"
  R:R16 _net34 _net35 R="30"
  VCVS:E1 _net99 _net99 _net33 _net32 G="1"
  Vdc:VA8 _cnet2 _net34 U="0V"
  L:L _net35 _net96 L="0.1u"
  R:R17 _net96 _net97 R="0.01"
  .Def:End
  Sub:X1 _ref _net111 _net112 _net99 _net50 _net97 Type="MAX495"
.Def:End
  </Model>
  <Symbol>
    <Line -20 40 0 -80 #000080 2 1>
    <Line 40 0 -60 -40 #000080 2 1>
    <Line -20 40 60 -40 #000080 2 1>
    <Line 10 -20 0 -20 #000080 2 1>
    <Line 10 40 0 -20 #000080 2 1>
    <Line -40 -20 20 0 #000080 2 1>
    <Line -40 20 20 0 #000080 2 1>
    <Line -15 20 10 0 #000000 2 1>
    <Line -15 -20 10 0 #ff0000 2 1>
    <Line -10 -15 0 -10 #ff0000 2 1>
    <Line 40 0 20 0 #000080 2 1>
    <Text 15 -35 8 #000000 0 "VCC">
    <Text 15 25 8 #000000 0 "VEE">
    <.PortSym -40 -20 1 0>
    <.PortSym -40 20 2 0>
    <.PortSym 10 -40 3 270>
    <.PortSym 10 40 4 90>
    <.PortSym 60 0 5 180>
    <.ID 50 24 OP>
  </Symbol>
</Component>

<Component NE5532>
  <Description>
Authors: Vadim Kuznetsov <ra3xdh@gmail.com> and Timofey Moiseev <voig1396@gmail.com>
  </Description>
  <Spice>
.SUBCKT SpiceOpamp_NE5532 gnd 1 2 3 4 5
*
C1   11 12 7.703E-12
C2    6  7 23.500E-12
DC    5 53 DX
DE   54  5 DX
DLP  90 91 DX
DLN  92 90 DX
DP    4  3 DX
EGND 99  0 POLY(2) (3,0) (4,0) 0 .5 .5
FB    7 99 POLY(5) VB VC VE VLP VLN 0 2.893E6 -3E6 3E6 3E6 -3E6
GA    6  0 11 12 1.382E-3
GCM   0  6 10 99 13.82E-9
IEE  10  4 DC 133.0E-6
HLIM 90  0 VLIM 1K
Q1   11  2 13 QX
Q2   12  1 14 QX
R2    6  9 100.0E3
RC1   3 11 723.3
RC2   3 12 723.3
RE1  13 10 329
RE2  14 10 329
REE  10 99 1.504E6
RO1   8  5 50
RO2   7 99 25
RP    3  4 7.757E3
VB    9  0 DC 0
VC    3 53 DC 2.700
VE   54  4 DC 2.700
VLIM  7  8 DC 0
VLP  91  0 DC 38
VLN   0 92 DC 38
.MODEL DX D(IS=800.0E-18)
.MODEL QX NPN(IS=800.0E-18 BF=132)
.ENDS
  </Spice>
  <Model>
.Def:SpiceOpamp_NE5532 _net2 _net3 _net4 _net0 _net1
Sub:X1 _net0 _net1 _net2 _net3 _net4 gnd Type="NE5532_cir"
.Def:End
.Def:NE5532_cir _net4 _net5 _net1 _net2 _net3 _ref
  .Def:NE5532 _ref _net1 _net2 _net3 _net4 _net5
  CCCS:FB _cnet11 _net99 _net7 gnd G="1"
  Eqn:EqnFBI1 FB.I1="+2.893e+06*V2-3e+06*V3+3e+06*V4+3e+06*V5-3e+06*V6" Export="no"
  Eqn:EqnFBQ1 FB.Q1="0" Export="no"
  Eqn:EqnFBI2 FB.I2="0" Export="no"
  Eqn:EqnFBQ2 FB.Q2="0" Export="no"
  CCVS:FBV2 _ref _cnet9 gnd _cnet10 G="1"
  Eqn:EqnFBI3 FB.I3="0" Export="no"
  Eqn:EqnFBQ3 FB.Q3="0" Export="no"
  CCVS:FBV3 _net91 _cnet7 gnd _cnet8 G="1"
  Eqn:EqnFBI4 FB.I4="0" Export="no"
  Eqn:EqnFBQ4 FB.Q4="0" Export="no"
  CCVS:FBV4 _net54 _cnet5 gnd _cnet6 G="1"
  Eqn:EqnFBI5 FB.I5="0" Export="no"
  Eqn:EqnFBQ5 FB.Q5="0" Export="no"
  CCVS:FBV5 _net3 _cnet3 gnd _cnet4 G="1"
  Eqn:EqnFBI6 FB.I6="0" Export="no"
  Eqn:EqnFBQ6 FB.Q6="0" Export="no"
  CCVS:FBV6 _net9 _cnet1 gnd _cnet2 G="1"
  CCVS:EGND _cnet0 _ref _net99 gnd G="1"
  Eqn:EqnEGNDI1 EGND.I1="+0.5*V2+0.5*V3" Export="no"
  Eqn:EqnEGNDQ1 EGND.Q1="0" Export="no"
  Eqn:EqnEGNDI2 EGND.I2="0" Export="no"
  Eqn:EqnEGNDQ2 EGND.Q2="0" Export="no"
  Eqn:EqnEGNDI3 EGND.I3="0" Export="no"
  Eqn:EqnEGNDQ3 EGND.Q3="0" Export="no"
  C:C1 _net11 _net12 C="7.703e-12"
  C:C2 _net6 _net7 C="2.35e-11"
  Diode:DC _net53 _net5 Is="8e-16" N="1" M="0.5" Cj0="1e-14" Vj="0.7"
  Diode:DE _net5 _net54 Is="8e-16" N="1" M="0.5" Cj0="1e-14" Vj="0.7"
  Diode:DLP _net91 _net90 Is="8e-16" N="1" M="0.5" Cj0="1e-14" Vj="0.7"
  Diode:DLN _net90 _net92 Is="8e-16" N="1" M="0.5" Cj0="1e-14" Vj="0.7"
  Diode:DP _net3 _net4 Is="8e-16" N="1" M="0.5" Cj0="1e-14" Vj="0.7"
  EDD:EGND _cnet0 gnd _net3 _ref _net4 _ref I1="EGND.I1" Q1="EGND.Q1" I2="EGND.I2" Q2="EGND.Q2" I3="EGND.I3" Q3="EGND.Q3"
  EDD:FB _cnet11 gnd _cnet1 gnd _cnet3 gnd _cnet5 gnd _cnet7 gnd _cnet9 gnd I1="FB.I1" Q1="FB.Q1" I2="FB.I2" Q2="FB.Q2" I3="FB.I3" Q3="FB.Q3" I4="FB.I4" Q4="FB.Q4" I5="FB.I5" Q5="FB.Q5" I6="FB.I6" Q6="FB.Q6"
  VCCS:GA _net11 _net6 _ref _net12 G="0.001382"
  VCCS:GCM _net10 _ref _net6 _net99 G="1.382e-08"
  Idc:IEE _net4 _net10 I="0.000133"
  CCVS:HLIM _net7 _net90 _ref _cnet12 G="1k"
  BJT:Q1 _net2 _net11 _net13 _ref Type="npn" Is="8e-16" Bf="132" Nf="1" Nr="1" Ikf="0" Ikr="0" Vaf="0" Var="0" Ise="0" Ne="1.5" Isc="0" Nc="2" Br="1" Rbm="0" Irb="0" Cje="0" Vje="0.75" Mje="0.33" Cjc="0" Vjc="0.75" Mjc="0.33" Xcjc="1" Cjs="0" Vjs="0.75" Mjs="0" Fc="0.5" Vtf="0" Tf="0" Xtf="0" Itf="0" Tr="0"
  BJT:Q2 _net1 _net12 _net14 _ref Type="npn" Is="8e-16" Bf="132" Nf="1" Nr="1" Ikf="0" Ikr="0" Vaf="0" Var="0" Ise="0" Ne="1.5" Isc="0" Nc="2" Br="1" Rbm="0" Irb="0" Cje="0" Vje="0.75" Mje="0.33" Cjc="0" Vjc="0.75" Mjc="0.33" Xcjc="1" Cjs="0" Vjs="0.75" Mjs="0" Fc="0.5" Vtf="0" Tf="0" Xtf="0" Itf="0" Tr="0"
  R:R2 _net6 _net9 R="100000"
  R:RC1 _net3 _net11 R="723.3"
  R:RC2 _net3 _net12 R="723.3"
  R:RE1 _net13 _net10 R="329"
  R:RE2 _net14 _net10 R="329"
  R:REE _net10 _net99 R="1.504e+06"
  R:RO1 _net8 _net5 R="50"
  R:RO2 _net7 _net99 R="25"
  R:RP _net3 _net4 R="7757"
  Vdc:VB _cnet2 _ref U="0"
  Vdc:VC _cnet4 _net53 U="2.7"
  Vdc:VE _cnet6 _net4 U="2.7"
  Vdc:VLIM _cnet12 _net8 U="0"
  Vdc:VLP _cnet8 _ref U="38"
  Vdc:VLN _cnet10 _net92 U="38"
  .Def:End
  Sub:X1 _ref _net1 _net2 _net3 _net4 _net5 Type="NE5532"
.Def:End
  </Model>
  <Symbol>
    <Line -20 40 0 -80 #000080 2 1>
    <Line 40 0 -60 -40 #000080 2 1>
    <Line -20 40 60 -40 #000080 2 1>
    <Line 10 -20 0 -20 #000080 2 1>
    <Line 10 40 0 -20 #000080 2 1>
    <Line -40 -20 20 0 #000080 2 1>
    <Line -40 20 20 0 #000080 2 1>
    <Line -15 20 10 0 #000000 2 1>
    <Line -15 -20 10 0 #ff0000 2 1>
    <Line -10 -15 0 -10 #ff0000 2 1>
    <Line 40 0 20 0 #000080 2 1>
    <Text 15 -35 8 #000000 0 "VCC">
    <Text 15 25 8 #000000 0 "VEE">
    <.PortSym -40 -20 1 0>
    <.PortSym -40 20 2 0>
    <.PortSym 10 -40 3 270>
    <.PortSym 10 40 4 90>
    <.PortSym 60 0 5 180>
    <.ID 50 34 OP>
  </Symbol>
</Component>

<Component NE5534>
  <Description>
Authors: Vadim Kuznetsov <ra3xdh@gmail.com> and Timofey Moiseev <voig1396@gmail.com>
  </Description>
  <Spice>
.SUBCKT SpiceOpamp_NE5534 gnd 1 2 3 4 5 6 7
*
C1   11 12 7.703E-12
C2    6  7 3.500E-12
DC    5 53 DX
DE   54  5 DX
DLP  90 91 DX
DLN  92 90 DX
DP    4  3 DX
EGND 99  0 POLY(2) (3,0) (4,0) 0 .5 .5
FB    7 99 POLY(5) VB VC VE VLP VLN 0 2.893E6 -3E6 3E6 3E6 -3E6
GA    6  0 11 12 1.382E-3
GCM   0  6 10 99 13.82E-9
IEE  10  4 DC 133.0E-6
HLIM 90  0 VLIM 1K
Q1   11  2 13 QX
Q2   12  1 14 QX
R2    6  9 100.0E3
RC1   3 11 723.3
RC2   3 12 723.3
RE1  13 10 329
RE2  14 10 329
REE  10 99 1.504E6
RO1   8  5 50
RO2   7 99 25
RP    3  4 7.757E3
VB    9  0 DC 0
VC    3 53 DC 2.700
VE   54  4 DC 2.700
VLIM  7  8 DC 0
VLP  91  0 DC 38
VLN   0 92 DC 38
.MODEL DX D(IS=800.0E-18)
.MODEL QX NPN(IS=800.0E-18 BF=132)
.ENDS
  </Spice>
  <Model>
.Def:SpiceOpamp_NE5534 _net2 _net3 _net4 _net0 _net1 _net5 _net6
Sub:X1 _net0 _net1 _net2 _net3 _net4 _net5 _net6 gnd Type="NE5534_cir"
.Def:End
.Def:NE5534_cir _net4 _net5 _net1 _net2 _net3 _net6 _net7 _ref
  .Def:NE5534 _ref _net1 _net2 _net3 _net4 _net5 _net6 _net7
  CCCS:FB _cnet11 _net99 _net7 gnd G="1"
  Eqn:EqnFBI1 FB.I1="+2.893e+06*V2-3e+06*V3+3e+06*V4+3e+06*V5-3e+06*V6" Export="no"
  Eqn:EqnFBQ1 FB.Q1="0" Export="no"
  Eqn:EqnFBI2 FB.I2="0" Export="no"
  Eqn:EqnFBQ2 FB.Q2="0" Export="no"
  CCVS:FBV2 _ref _cnet9 gnd _cnet10 G="1"
  Eqn:EqnFBI3 FB.I3="0" Export="no"
  Eqn:EqnFBQ3 FB.Q3="0" Export="no"
  CCVS:FBV3 _net91 _cnet7 gnd _cnet8 G="1"
  Eqn:EqnFBI4 FB.I4="0" Export="no"
  Eqn:EqnFBQ4 FB.Q4="0" Export="no"
  CCVS:FBV4 _net54 _cnet5 gnd _cnet6 G="1"
  Eqn:EqnFBI5 FB.I5="0" Export="no"
  Eqn:EqnFBQ5 FB.Q5="0" Export="no"
  CCVS:FBV5 _net3 _cnet3 gnd _cnet4 G="1"
  Eqn:EqnFBI6 FB.I6="0" Export="no"
  Eqn:EqnFBQ6 FB.Q6="0" Export="no"
  CCVS:FBV6 _net9 _cnet1 gnd _cnet2 G="1"
  CCVS:EGND _cnet0 _ref _net99 gnd G="1"
  Eqn:EqnEGNDI1 EGND.I1="+0.5*V2+0.5*V3" Export="no"
  Eqn:EqnEGNDQ1 EGND.Q1="0" Export="no"
  Eqn:EqnEGNDI2 EGND.I2="0" Export="no"
  Eqn:EqnEGNDQ2 EGND.Q2="0" Export="no"
  Eqn:EqnEGNDI3 EGND.I3="0" Export="no"
  Eqn:EqnEGNDQ3 EGND.Q3="0" Export="no"
  C:C1 _net11 _net12 C="7.703e-12"
  C:C2 _net6 _net7 C="3.5e-12"
  Diode:DC _net53 _net5 Is="8e-16" N="1" M="0.5" Cj0="1e-14" Vj="0.7"
  Diode:DE _net5 _net54 Is="8e-16" N="1" M="0.5" Cj0="1e-14" Vj="0.7"
  Diode:DLP _net91 _net90 Is="8e-16" N="1" M="0.5" Cj0="1e-14" Vj="0.7"
  Diode:DLN _net90 _net92 Is="8e-16" N="1" M="0.5" Cj0="1e-14" Vj="0.7"
  Diode:DP _net3 _net4 Is="8e-16" N="1" M="0.5" Cj0="1e-14" Vj="0.7"
  EDD:EGND _cnet0 gnd _net3 _ref _net4 _ref I1="EGND.I1" Q1="EGND.Q1" I2="EGND.I2" Q2="EGND.Q2" I3="EGND.I3" Q3="EGND.Q3"
  EDD:FB _cnet11 gnd _cnet1 gnd _cnet3 gnd _cnet5 gnd _cnet7 gnd _cnet9 gnd I1="FB.I1" Q1="FB.Q1" I2="FB.I2" Q2="FB.Q2" I3="FB.I3" Q3="FB.Q3" I4="FB.I4" Q4="FB.Q4" I5="FB.I5" Q5="FB.Q5" I6="FB.I6" Q6="FB.Q6"
  VCCS:GA _net11 _net6 _ref _net12 G="0.001382"
  VCCS:GCM _net10 _ref _net6 _net99 G="1.382e-08"
  Idc:IEE _net4 _net10 I="0.000133"
  CCVS:HLIM _net7 _net90 _ref _cnet12 G="1k"
  BJT:Q1 _net2 _net11 _net13 _ref Type="npn" Is="8e-16" Bf="132" Nf="1" Nr="1" Ikf="0" Ikr="0" Vaf="0" Var="0" Ise="0" Ne="1.5" Isc="0" Nc="2" Br="1" Rbm="0" Irb="0" Cje="0" Vje="0.75" Mje="0.33" Cjc="0" Vjc="0.75" Mjc="0.33" Xcjc="1" Cjs="0" Vjs="0.75" Mjs="0" Fc="0.5" Vtf="0" Tf="0" Xtf="0" Itf="0" Tr="0"
  BJT:Q2 _net1 _net12 _net14 _ref Type="npn" Is="8e-16" Bf="132" Nf="1" Nr="1" Ikf="0" Ikr="0" Vaf="0" Var="0" Ise="0" Ne="1.5" Isc="0" Nc="2" Br="1" Rbm="0" Irb="0" Cje="0" Vje="0.75" Mje="0.33" Cjc="0" Vjc="0.75" Mjc="0.33" Xcjc="1" Cjs="0" Vjs="0.75" Mjs="0" Fc="0.5" Vtf="0" Tf="0" Xtf="0" Itf="0" Tr="0"
  R:R2 _net6 _net9 R="100000"
  R:RC1 _net3 _net11 R="723.3"
  R:RC2 _net3 _net12 R="723.3"
  R:RE1 _net13 _net10 R="329"
  R:RE2 _net14 _net10 R="329"
  R:REE _net10 _net99 R="1.504e+06"
  R:RO1 _net8 _net5 R="50"
  R:RO2 _net7 _net99 R="25"
  R:RP _net3 _net4 R="7757"
  Vdc:VB _cnet2 _ref U="0"
  Vdc:VC _cnet4 _net53 U="2.7"
  Vdc:VE _cnet6 _net4 U="2.7"
  Vdc:VLIM _cnet12 _net8 U="0"
  Vdc:VLP _cnet8 _ref U="38"
  Vdc:VLN _cnet10 _net92 U="38"
  .Def:End
  Sub:X1 _ref _net1 _net2 _net3 _net4 _net5 _net6 _net7 Type="NE5534"
.Def:End
  </Model>
  <Symbol>
    <Line -20 -40 0 80 #000080 2 1>
    <Line -20 -40 80 40 #000080 2 1>
    <Line -20 40 80 -40 #000080 2 1>
    <Line -40 -20 20 0 #000080 2 1>
    <Line -40 20 20 0 #000080 2 1>
    <Line -15 20 10 0 #000000 2 1>
    <Line -10 -25 0 10 #ff0000 2 1>
    <Line -15 -20 10 0 #ff0000 2 1>
    <Line 0 -30 0 -20 #000080 2 1>
    <Line 60 0 20 0 #000080 2 1>
    <Line 40 -10 0 -40 #000080 2 1>
    <Line 0 30 0 20 #000080 2 1>
    <Line 20 -20 0 -30 #000080 2 1>
    <Text 5 35 8 #000000 0 "VEE">
    <Text -25 -55 8 #000000 0 "VCC">
    <Text 20 -10 8 #000000 0 "CMP">
    <.PortSym -40 -20 1 0>
    <.PortSym -40 20 2 0>
    <.PortSym 0 -50 3 270>
    <.PortSym 80 0 5 180>
    <.PortSym 0 50 4 90>
    <.PortSym 20 -50 6 270>
    <.PortSym 40 -50 7 270>
    <.ID 70 24 OP>
  </Symbol>
</Component>

<Component ad822>
  <Description>
Authors: Vadim Kuznetsov <ra3xdh@gmail.com> and Timofey Moiseev <voig1396@gmail.com>
  </Description>
  <Spice>
.SUBCKT SpiceOpamp_AD822 gnd 1 2 99 50 25
*
* INPUT STAGE & POLE AT 5 MHZ
*
R3 5 99 2456
R4 6 99 2456
CIN 1 2 5E-12
C2 5 6 6.48E-12
I1 4 50 108E-6
IOS 1 2 1E-12
EOS 7 1 POLY(1) (12,98) 100E-6 1
J1 5 2 4 JX
J2 6 7 4 JX
GB1 50 2 POLY(3) (2,4) (2,5) (2,50) 0 1E-12 1E-12 1E-12
GB2 50 7 POLY(3) (7,4) (7,5) (7,50) 0 1E-12 1E-12 1E-12
*
* GAIN STAGE & POLE AT 13.4 HZ
*
EREF 98 0 (30,0) 1
R5 9 98 2.313E6
C3 9 25 32E-12
G1 98 9 (6,5) 4.07E-4
V1 8 98 0
V2 98 10 -1
D1 9 10 DX
D2 8 9 DX
*
* COMMON-MODE GAIN NETWORK WITH ZERO AT 1 KHZ
*
R21 11 12 1E6
R22 12 98 100
C14 11 12 159E-12
E13 11 98 POLY(2) (2,98) (1,98) 0 0.5 0.5
*
* POLE AT 10 MHZ
*
R23 18 98 1E6
C15 18 98 15.9E-15
G15 98 18 (9,98) 1E-6
*
* OUTPUT STAGE
*
ES 26 51 POLY(1) (18,98) 1.72 1
RS 26 22 500
V3 23 51 1.03951
V4 21 23 1.36
C16 20 25 2E-12
C17 24 25 2E-12
RG1 20 97 1E8
RG2 24 97 1E8
Q1 20 20 97 PNP
Q2 20 21 22 NPN
Q3 24 23 22 PNP
Q4 24 24 51 NPN
Q5 25 20 97 PNP 20
Q6 25 24 51 NPN 20
VP 96 97 0
VN 51 52 0
EP 96 0 POLY(1) (99,0) 0.01 1
EN 52 0 POLY(1) (50,0) -0.015 1
R25 30 99 63.5E3
R26 30 50 63.5E3
FSY1 99 0 VP 1
FSY2 0 50 VN 1
*
* MODELS USED
*
.MODEL JX NJF(BETA=7.67E-4 VTO=-2.000 IS=1E-12)
.MODEL NPN NPN(BF=120 VAF=150 VAR=15 RB=2E3 RE=4 RC=200)
.MODEL PNP PNP(BF=120 VAF=150 VAR=15 RB=2E3 RE=4 RC=900)
.MODEL DX D(IS=1E-15)